version 2
run r3-0-20170418-14:51:47-4988
attr configname r3
attr datetime 20170418-14:51:47
attr experiment r3
attr inifile omnetpp.ini
attr iterationvars ""
attr iterationvars2 $repetition=0
attr measurement ""
attr network obsmodules.test.PacketDispatcherTest.PacketDispatcherTest
attr processid 4988
attr repetition 0
attr replication #0
attr resultdir results
attr runnumber 0
attr seedset 0
param **.comparisonType 2
param **.dispatcherRules "\"DispatcherRules_t1\""
param **.inputFile "\"PacketDispatcherInput_t1\""
param **.numPacketBurstifiers 16
param **.outputFile "\"PacketDispatcherOutput_t3\""
param **.patternFile "\"PacketDispatcherPattern_t3\""

vector 0  PacketDispatcherTest.packetDispatcher  recvPacketSize  ETV
0	2	0.001	1508
0	5	0.002	40
0	8	0.003	1500
0	11	0.004	1500
0	14	0.005	1500
0	17	0.006	1508
0	20	0.007	1508
0	23	0.008	1508
0	26	0.009	1508
0	29	0.01	1508
0	32	0.0105	1508
0	35	0.011	1508
0	38	0.012	1500
0	41	0.0125	1508
0	44	0.013	40
