version 2
run r1-0-20170416-17:24:15-11358
attr configname r1
attr datetime 20170416-17:24:15
attr experiment r1
attr inifile omnetpp.ini
attr iterationvars ""
attr iterationvars2 $repetition=0
attr measurement ""
attr network obsmodules.test.PacketBurstifierTest.PacketBurstifierTest
attr processid 11358
attr repetition 0
attr replication #0
attr resultdir results
attr runnumber 0
attr seedset 0
param **.cteHeader 8B
param **.destLabel 5
param **.inputFile "\"PacketBurstifierInput_t1\""
param **.maxOffset 0.0009s
param **.maxSize 10240B
param **.minOffset 0.0001s
param **.minSizeWithPadding 0
param **.numPackets 16
param **.outputFile "\"PacketBurstifierOutput_t1\""
param **.overflowLastPacket false
param **.patternFile "\"PacketBurstifierPattern_t1\""
param **.timeTolerance 1e-10s
param **.timeout 0.01s
param **.varHeader 2B

vector 0  PacketBurstifierTest.packetBurstifier  burstifierInPacketSize  ETV
vector 1  PacketBurstifierTest.packetBurstifier  avgPacketTime  ETV
0	2	0.002	44
0	4	0.003	40
0	6	0.004	56
0	8	0.005	56
0	10	0.006	64
0	12	0.007	72
0	14	0.008	64
0	16	0.009	48
0	18	0.01	48
0	20	0.011	44
0	24	0.012	1500
0	26	0.013	1040
0	28	0.014	1280
0	30	0.015	1280
0	32	0.016	1508
0	34	0.017	1048
0	36	0.018	1288
0	38	0.019	1288
0	41	0.0195	520
0	43	0.02	520
0	45	0.0205	520
0	47	0.021	512
0	49	0.0215	512
0	51	0.022	512
0	53	0.0225	520
0	55	0.023	520
0	57	0.0235	520
0	59	0.024	512
0	61	0.0245	512
0	63	0.025	512
0	65	0.0255	520
0	67	0.026	520
0	69	0.0265	520
0	72	0.027	512
0	74	0.028	48
0	76	0.029	48
0	78	0.03	48
0	80	0.031	48
0	82	0.032	40
0	84	0.033	40
0	86	0.034	48
0	88	0.035	48
0	90	0.036	40
0	94	0.037	48
0	96	0.0405	1285
1	21	0.012	0.0055
1	38	0.019	0.003117647059
1	69	0.0265	0.003681818182
1	91	0.037	0.006023255814
