version 2
run r1-0-20170418-15:02:54-6022
attr configname r1
attr datetime 20170418-15:02:54
attr experiment r1
attr inifile omnetpp.ini
attr iterationvars ""
attr iterationvars2 $repetition=0
attr measurement ""
attr network obsmodules.test.PacketBurstifierTest.PacketBurstifierTest
attr processid 6022
attr repetition 0
attr replication #0
attr resultdir results
attr runnumber 0
attr seedset 0
param **.cteHeader 8B
param **.destLabel 5
param **.inputFile "\"PacketBurstifierInput_t1\""
param **.maxOffset 0.0009s
param **.maxSize 10240B
param **.minOffset 0.0001s
param **.minSizeWithPadding 0
param **.numPackets 16
param **.outputFile "\"PacketBurstifierOutput_t1\""
param **.overflowLastPacket false
param **.patternFile "\"PacketBurstifierPattern_t1\""
param **.timeTolerance 1e-10s
param **.timeout 0.01s
param **.varHeader 2B

scalar PacketBurstifierTest.packetBurstifier 	"my ID" 	3
