file 1747 1492381659                                            
version 2
run r1-0-20170416-17:24:15-11358
attr configname r1
attr datetime 20170416-17:24:15
attr experiment r1
attr inifile omnetpp.ini
attr iterationvars ""
attr iterationvars2 $repetition=0
attr measurement ""
attr network obsmodules.test.PacketBurstifierTest.PacketBurstifierTest
attr processid 11358
attr repetition 0
attr replication #0
attr resultdir results
attr runnumber 0
attr seedset 0
param **.cteHeader 8B
param **.destLabel 5
param **.inputFile "\"PacketBurstifierInput_t1\""
param **.maxOffset 0.0009s
param **.maxSize 10240B
param **.minOffset 0.0001s
param **.minSizeWithPadding 0
param **.numPackets 16
param **.outputFile "\"PacketBurstifierOutput_t1\""
param **.overflowLastPacket false
param **.patternFile "\"PacketBurstifierPattern_t1\""
param **.timeTolerance 1e-10s
param **.timeout 0.01s
param **.varHeader 2B

vector 0  PacketBurstifierTest.packetBurstifier  burstifierInPacketSize  ETV
vector 1  PacketBurstifierTest.packetBurstifier  avgPacketTime  ETV
0	984 666 2 96 0.002 0.0405 45 40 1508 20773 19269145
1	1650 97 21 91 0.012 0.037 4 0.003117647059 0.006023255814 0.018322721055 8.9805118910682e-05
