version 2
run r3-0-20170510-15:22:31-13427
attr configname r3
attr datetime 20170510-15:22:31
attr experiment r3
attr inifile omnetpp.ini
attr iterationvars ""
attr iterationvars2 $repetition=0
attr measurement ""
attr network obsmodules.test.PacketBurstifierTest.PacketBurstifierTest
attr processid 13427
attr repetition 0
attr replication #0
attr resultdir results
attr runnumber 0
attr seedset 0
param **.comparisonType 1
param **.cteHeader 8B
param **.destLabel 5
param **.inputFile "\"PacketBurstifierInput_t3\""
param **.maxOffset 0.0009s
param **.maxSize 10240B
param **.minOffset 0.0001s
param **.minSizeWithPadding 0
param **.numPackets 16
param **.outputFile "\"PacketBurstifierOutput_t3\""
param **.overflowLastPacket false
param **.patternFile "\"PacketBurstifierPattern_t3\""
param **.timeout 0.01s
param **.varHeader 2B

vector 0  PacketBurstifierTest.packetBurstifier  burstifierInPacketSize  ETV
vector 1  PacketBurstifierTest.packetBurstifier  avgPacketTime  ETV
0	2	0.002	36
0	4	0.003	40
0	6	0.004	48
0	8	0.005	56
0	10	0.006	64
0	12	0.007	64
0	14	0.008	56
0	16	0.009	48
0	18	0.01	40
0	20	0.011	36
1	21	0.012	0.0055
