version 2
run r1-0-20170505-16:38:15-8713
attr configname r1
attr datetime 20170505-16:38:15
attr experiment r1
attr inifile omnetpp.ini
attr iterationvars ""
attr iterationvars2 $repetition=0
attr measurement ""
attr network obsmodules.test.BurstDisassemblerTest.BurstDisassemblerTest
attr processid 8713
attr repetition 0
attr replication #0
attr resultdir results
attr runnumber 0
attr seedset 0
param **.inputFile "\"BurstDisassemblerInput_t1\""
param **.numLambdas 4
param **.outputFile "\"BurstDisassemblerOutput_t1\""
param **.patternFile "\"BurstDisassemblerPattern_t1\""
param **.timeTolerance 1e-10s

scalar BurstDisassemblerTest.burstDisassembler 	"received Bursts" 	8
