file 1152 1494362837                                            
version 2
run r1-0-20170509-15:46:54-16892
attr configname r1
attr datetime 20170509-15:46:54
attr experiment r1
attr inifile omnetpp.ini
attr iterationvars ""
attr iterationvars2 $repetition=0
attr measurement ""
attr network obsmodules.test.BurstSenderTest.BurstSenderTest
attr processid 16892
attr repetition 0
attr replication #0
attr resultdir results
attr runnumber 0
attr seedset 0
param **.BCPSize 256B
param **.colours "\"\""
param **.dataRate 10Mbps
param **.guardTime 1e-6s
param **.inputFile "\"BurstSenderInput_t1\""
param **.maxSchedBurstElems 0
param **.maxSchedBurstSize 0B
param **.numBurstifiers 8
param **.numLambdas 4
param **.outputFile "\"BurstSenderOutput_t1\""
param **.patternFile "\"BurstSenderPattern_t1\""
param **.timeTolerance 1e-10s

vector 5  BurstSenderTest.burstSender  burstSize  ETV
vector 0  BurstSenderTest  burstListSize  ETV
vector 1  BurstSenderTest.burstSender  horizonVector{0}  ETV
vector 2  BurstSenderTest.burstSender  horizonVector{1}  ETV
vector 3  BurstSenderTest.burstSender  horizonVector{2}  ETV
0	1048 24 2 9 0 0 3 1 3 6 14
1	1072 15 2 2 0 0 1 0.009193 0.009193 0.009193 8.4511249e-05
2	1087 15 5 5 0 0 1 0.006097 0.006097 0.006097 3.7173409e-05
3	1102 15 9 9 0 0 1 0.009193 0.009193 0.009193 8.4511249e-05
5	1117 35 2 9 0 0 3 5120 10240 25600 235929600
